5281692
  -OEChem-04102118223D

 32 34  0     0  0  0  0  0  0999 V2000
   -0.7538   -0.7430    0.0014 O   0  0  0  0  0  0  0  0  0  0  0  0
    0.4162    2.7525   -0.0311 O   0  0  0  0  0  0  0  0  0  0  0  0
   -2.3537    3.0046   -0.0171 O   0  0  0  0  0  0  0  0  0  0  0  0
    4.1742   -0.5643   -2.3937 O   0  0  0  0  0  0  0  0  0  0  0  0
    4.1950   -0.5021    2.3950 O   0  0  0  0  0  0  0  0  0  0  0  0
   -5.0527   -2.7556    0.0127 O   0  0  0  0  0  0  0  0  0  0  0  0
    5.5427   -0.8369   -0.0016 O   0  0  0  0  0  0  0  0  0  0  0  0
    0.0497    0.3863    0.0078 C   0  0  0  0  0  0  0  0  0  0  0  0
   -2.7234    0.6755   -0.0007 C   0  0  0  0  0  0  0  0  0  0  0  0
    1.4886    0.0679    0.0046 C   0  0  0  0  0  0  0  0  0  0  0  0
   -2.1147   -0.5776    0.0031 C   0  0  0  0  0  0  0  0  0  0  0  0
   -0.4109    1.6504   -0.0045 C   0  0  0  0  0  0  0  0  0  0  0  0
   -1.8762    1.8779   -0.0076 C   0  0  0  0  0  0  0  0  0  0  0  0
    2.1752   -0.0687    1.2114 C   0  0  0  0  0  0  0  0  0  0  0  0
    2.1647   -0.0993   -1.2043 C   0  0  0  0  0  0  0  0  0  0  0  0
   -4.1164    0.7832    0.0001 C   0  0  0  0  0  0  0  0  0  0  0  0
   -2.8963   -1.7331    0.0073 C   0  0  0  0  0  0  0  0  0  0  0  0
    3.5262   -0.4029   -1.2063 C   0  0  0  0  0  0  0  0  0  0  0  0
    3.5367   -0.3720    1.2095 C   0  0  0  0  0  0  0  0  0  0  0  0
   -4.2875   -1.6298    0.0084 C   0  0  0  0  0  0  0  0  0  0  0  0
   -4.8960   -0.3740    0.0049 C   0  0  0  0  0  0  0  0  0  0  0  0
    4.2122   -0.5390    0.0006 C   0  0  0  0  0  0  0  0  0  0  0  0
    1.6559    0.0592    2.1587 H   0  0  0  0  0  0  0  0  0  0  0  0
    1.6372    0.0044   -2.1500 H   0  0  0  0  0  0  0  0  0  0  0  0
   -4.6082    1.7518   -0.0031 H   0  0  0  0  0  0  0  0  0  0  0  0
   -2.4245   -2.7125    0.0098 H   0  0  0  0  0  0  0  0  0  0  0  0
   -5.9792   -0.2835    0.0056 H   0  0  0  0  0  0  0  0  0  0  0  0
    1.3443    2.4682   -0.0298 H   0  0  0  0  0  0  0  0  0  0  0  0
    5.1069   -0.7699   -2.2076 H   0  0  0  0  0  0  0  0  0  0  0  0
    5.1448   -0.3543    2.2590 H   0  0  0  0  0  0  0  0  0  0  0  0
   -5.9910   -2.4989    0.0129 H   0  0  0  0  0  0  0  0  0  0  0  0
    5.7865   -1.2500    0.8425 H   0  0  0  0  0  0  0  0  0  0  0  0
  1  8  1  0  0  0  0
  1 11  1  0  0  0  0
  2 12  1  0  0  0  0
  2 28  1  0  0  0  0
  3 13  2  0  0  0  0
  4 18  1  0  0  0  0
  4 29  1  0  0  0  0
  5 19  1  0  0  0  0
  5 30  1  0  0  0  0
  6 20  1  0  0  0  0
  6 31  1  0  0  0  0
  7 22  1  0  0  0  0
  7 32  1  0  0  0  0
  8 10  1  0  0  0  0
  8 12  2  0  0  0  0
  9 11  2  0  0  0  0
  9 13  1  0  0  0  0
  9 16  1  0  0  0  0
 10 14  2  0  0  0  0
 10 15  1  0  0  0  0
 11 17  1  0  0  0  0
 12 13  1  0  0  0  0
 14 19  1  0  0  0  0
 14 23  1  0  0  0  0
 15 18  2  0  0  0  0
 15 24  1  0  0  0  0
 16 21  2  0  0  0  0
 16 25  1  0  0  0  0
 17 20  2  0  0  0  0
 17 26  1  0  0  0  0
 18 22  1  0  0  0  0
 19 22  2  0  0  0  0
 20 21  1  0  0  0  0
 21 27  1  0  0  0  0
M  END
> <PUBCHEM_COMPOUND_CID>
5281692

> <PUBCHEM_CONFORMER_RMSD>
0.6

> <PUBCHEM_CONFORMER_DIVERSEORDER>
1
2

> <PUBCHEM_MMFF94_PARTIAL_CHARGES>
32
1 -0.16
10 0.03
11 0.08
12 0.09
13 0.47
14 -0.15
15 -0.15
16 -0.15
17 -0.15
18 0.08
19 0.08
2 -0.53
20 0.08
21 -0.15
22 0.08
23 0.15
24 0.15
25 0.15
26 0.15
27 0.15
28 0.45
29 0.45
3 -0.57
30 0.45
31 0.45
32 0.45
4 -0.53
5 -0.53
6 -0.53
7 -0.53
8 0.05
9 0.09

> <PUBCHEM_EFFECTIVE_ROTOR_COUNT>
1

> <PUBCHEM_PHARMACOPHORE_FEATURES>
10
1 1 acceptor
1 2 donor
1 3 acceptor
1 4 donor
1 5 donor
1 6 donor
1 7 donor
6 1 8 9 11 12 13 rings
6 10 14 15 18 19 22 rings
6 9 11 16 17 20 21 rings

> <PUBCHEM_HEAVY_ATOM_COUNT>
22

> <PUBCHEM_ATOM_DEF_STEREO_COUNT>
0

> <PUBCHEM_ATOM_UDEF_STEREO_COUNT>
0

> <PUBCHEM_BOND_DEF_STEREO_COUNT>
0

> <PUBCHEM_BOND_UDEF_STEREO_COUNT>
0

> <PUBCHEM_ISOTOPIC_ATOM_COUNT>
0

> <PUBCHEM_COMPONENT_COUNT>
1

> <PUBCHEM_CACTVS_TAUTO_COUNT>
267

> <PUBCHEM_CONFORMER_ID>
0050979C00000001

> <PUBCHEM_MMFF94_ENERGY>
65.5588

> <PUBCHEM_FEATURE_SELFOVERLAP>
50.785

> <PUBCHEM_SHAPE_FINGERPRINT>
10319926 262 18126264386714787106
11046707 91 18409449198179182383
11370993 144 16773806857166913043
11543360 7 15719392879978213267
11552529 35 14404035046347846389
12236239 1 17748828484364304318
12363563 72 18339084894934606823
12553582 1 18408610275097083347
12788726 201 18188213100484666129
13140716 1 18339643447168727417
13583140 156 17916567744909717670
13675066 3 17632576063191890707
14386348 63 17846500309667238294
15196674 1 18338517546992742117
15961568 22 18337949116867630412
16752209 62 18334576815297605107
17138139 8 17604988311160444195
17349148 13 17821725014069066514
17804303 29 18413388748294265033
1813 80 18411139172962428733
18222031 100 18271242837146745087
18681886 176 18334296492189677374
19141452 34 17703791457483519863
193927 3 18269846461785329871
200 152 16732700523829804428
20028762 73 17986110936550595407
20374829 77 18411139156157027967
21033648 29 17131539557711450515
21065201 7 18270400482142721846
21267235 1 18336834173511303275
21728266 224 18260534606987459194
2297311 6 18341901778867767542
23175994 123 17275388703150446513
23366157 5 17898008181685458333
23402539 116 18408881828261490519
23557571 272 18201720600710529032
23559900 14 18127414454143998118
3004659 81 18113053861132238303
314173 85 18272093811933372489
335352 9 18410291420382013557
3411729 13 18124588941089400560
474 4 17024045924451686756
5104073 3 18268998764432620843
573450 72 18187359883386856504
602551 16 18413105048419045570
67856867 119 18187367692239287836
7471813 234 17168140114316166948
7495541 125 18131631197332524128
77492 1 17604153627632194372
7970288 3 18337953505918102979

> <PUBCHEM_SHAPE_MULTIPOLES>
411.66
10.94
2.23
1.29
1.86
1.04
0
-5.99
0.05
-3.22
-0.02
2.58
-0.29
0.05

> <PUBCHEM_SHAPE_SELFOVERLAP>
922.789

> <PUBCHEM_SHAPE_VOLUME>
216.7

> <PUBCHEM_COORDINATE_TYPE>
2
5
10

$$$$
